&MODELS

 model      = 'MoistPlume'

 ncfname    = 'moist.nc'

 box%ncells = 32, 32, 32

 box%extent = 6280, 6280, 6280
 box%origin = 0, 0, 0

 moist%H          = 0.8
 moist%z_c        = 2500
 moist%mu         = 0.9
 moist%z_d        = 4000
 moist%z_m        = 5000
 moist%r_plume    = 800
 moist%e_values   = 0.3, -0.4, 0.5
/

&PHYSICS
 gravity    = 10.0d0
 c_p        = 1000.0d0
 L_v        = 2500000.0d0
 theta_0    = 300.0d0
 q_0        = 0.015d0
 height_c   = 1000.0d0
/

