&MODELS

 model      = 'Robert'
 ncfname    = 'robert2d.nc'

 box%ncells = 32, 48
 box%extent = 1000, 1500
 box%origin = -500.0, 0.0

 robert_flow%n_bubbles = 1

 robert_flow%bubbles(1)%distr = 'uniform'
 robert_flow%bubbles(1)%dtheta_max = 0.5
 robert_flow%bubbles(1)%center = 0.0, 260.0
 robert_flow%bubbles(1)%radius = 250.0

/

&PHYSICS
 gravity = 9.81d0
 theta_0 = 303.15d0
/
