&MODELS

 model       = 'Straka'
 ncfname     = 'straka2d.nc'

 box%ncells  = 2048, 256
 box%extent  = 51200, 6400
 box%origin  = -25600.0, 0.0

 ![K] max. pot. temp. perturbation
 straka_flow%dtheta_max = 15.0

 ![m] sphere center (x, z)
 straka_flow%center = 0.0, 3000.0

 ![m] ellipse radii (x, z)
 straka_flow%radii = 4000.0, 2000.0
/

&PHYSICS
 gravity = 9.81d0
 theta_0 = 300.0d0
/
